
  EPA STORM WATER MANAGEMENT MODEL - VERSION 5.1 (Build 5.1.014)
  --------------------------------------------------------------

  Example 7 
  Dual Drainage System 
  Final Design 
  
  
  *************
  Element Count
  *************
  Number of rain gages ...... 1
  Number of subcatchments ... 7
  Number of nodes ........... 16
  Number of links ........... 23
  Number of pollutants ...... 0
  Number of land uses ....... 0
  
  
  ****************
  Raingage Summary
  ****************
                                                      Data       Recording
  Name                 Data Source                    Type       Interval 
  ------------------------------------------------------------------------
  RainGage             100-yr                         INTENSITY    5 min.
  
  
  ********************
  Subcatchment Summary
  ********************
  Name                       Area     Width   %Imperv    %Slope Rain Gage            Outlet              
  -----------------------------------------------------------------------------------------------------------
  S1                         4.55   1587.00     56.80    2.0000 RainGage             Aux1                
  S2                         4.74   1653.00     63.00    2.0000 RainGage             Aux2                
  S3                         3.74   1456.00     39.50    3.1000 RainGage             Aux3                
  S4                         6.79   2331.00     49.90    3.1000 RainGage             J7                  
  S5                         4.79   1670.00     87.70    2.0000 RainGage             J10                 
  S6                         1.98    690.00     95.00    2.0000 RainGage             J11                 
  S7                         2.33    907.00      0.00    3.1000 RainGage             J10                 
  
  
  ************
  Node Summary
  ************
                                           Invert      Max.    Ponded    External
  Name                 Type                 Elev.     Depth      Area    Inflow  
  -------------------------------------------------------------------------------
  J1                   JUNCTION           4969.00      5.30       0.0
  J2a                  JUNCTION           4966.70      5.30       0.0
  J2                   JUNCTION           4965.00      5.30       0.0
  J3                   JUNCTION           4973.00      3.00       0.0
  J4                   JUNCTION           4965.00      9.00       0.0
  J5                   JUNCTION           4965.80      7.00       0.0
  J6                   JUNCTION           4969.00      3.50       0.0
  J7                   JUNCTION           4963.50     11.00       0.0
  J8                   JUNCTION           4966.50      3.50       0.0
  J9                   JUNCTION           4964.80      3.00       0.0
  J10                  JUNCTION           4957.80      9.00       0.0
  J11                  JUNCTION           4957.00      9.00       0.0
  Aux1                 JUNCTION           4975.00      1.30       0.0
  Aux2                 JUNCTION           4971.80      1.30       0.0
  Aux3                 JUNCTION           4968.50      9.00       0.0
  O1                   OUTFALL            4956.00      4.75       0.0
  
  
  ************
  Link Summary
  ************
  Name             From Node        To Node          Type            Length    %Slope Roughness
  ---------------------------------------------------------------------------------------------
  C2a              J2a              J2               CONDUIT          157.5    1.0796    0.0160
  C2               J2               J11              CONDUIT          526.0    1.1408    0.0160
  C3               J3               J4               CONDUIT          109.0    1.8352    0.0160
  C4               J4               J5               CONDUIT          133.0    0.9023    0.0500
  C5               J5               J6               CONDUIT          207.0    0.3865    0.0500
  C6               J7               J6               CONDUIT          140.0    1.7860    0.0500
  C7               J6               J8               CONDUIT           95.0    2.6325    0.0160
  C8               J8               J9               CONDUIT          166.0    1.0242    0.0500
  C9               J9               J10              CONDUIT          320.0    0.3125    0.0500
  C10              J10              J11              CONDUIT          145.0    0.5517    0.0500
  C11              J11              O1               CONDUIT           89.0    1.1237    0.0160
  C_Aux1           Aux1             J1               CONDUIT          377.3    0.5301    0.0160
  C_Aux2           Aux2             J2a              CONDUIT          239.4    0.4595    0.0160
  C_Aux1to2        J1               Aux2             CONDUIT          286.1    0.4195    0.0160
  C_Aux3           Aux3             J3               CONDUIT          444.8    0.3373    0.0500
  P1               J1               J5               CONDUIT          185.4    1.7263    0.0160
  P2               J2a              J2               CONDUIT          157.5    1.0796    0.0160
  P3               J2               J11              CONDUIT          529.2    1.5118    0.0160
  P4               Aux3             J4               CONDUIT          567.2    0.6171    0.0160
  P5               J5               J4               CONDUIT          126.0    0.6350    0.0160
  P6               J4               J7               CONDUIT          360.4    0.4162    0.0160
  P7               J7               J10              CONDUIT          507.8    1.1226    0.0160
  P8               J10              J11              CONDUIT          144.5    0.5536    0.0160
  
  
  *********************
  Cross Section Summary
  *********************
                                        Full     Full     Hyd.     Max.   No. of     Full
  Conduit          Shape               Depth     Area     Rad.    Width  Barrels     Flow
  ---------------------------------------------------------------------------------------
  C2a              Half_Street          1.30    26.00     0.63    40.00        1   124.25
  C2               Half_Street          1.30    26.00     0.63    40.00        1   127.72
  C3               CIRCULAR             2.25     3.98     0.56     2.25        1    22.94
  C4               TRAPEZOIDAL          3.00    60.00     1.69    35.00        1   161.48
  C5               TRAPEZOIDAL          3.00    60.00     1.69    35.00        1   105.68
  C6               TRAPEZOIDAL          3.00    60.00     1.69    35.00        1   227.18
  C7               CIRCULAR             3.50     9.62     0.87     3.50        1    89.27
  C8               TRAPEZOIDAL          3.00    60.00     1.69    35.00        1   172.04
  C9               TRAPEZOIDAL          3.00    60.00     1.69    35.00        1    95.03
  C10              TRAPEZOIDAL          3.00    60.00     1.69    35.00        1   126.27
  C11              CIRCULAR             4.75    17.72     1.19     4.75        1   131.68
  C_Aux1           Full_Street          1.30    52.00     0.64    80.00        1   175.55
  C_Aux2           Full_Street          1.30    52.00     0.64    80.00        1   163.44
  C_Aux1to2        Full_Street          1.30    52.00     0.64    80.00        1   156.17
  C_Aux3           TRAPEZOIDAL          3.00    60.00     1.69    35.00        1    98.72
  P1               CIRCULAR             1.33     1.39     0.33     1.33        1     5.48
  P2               CIRCULAR             1.50     1.77     0.38     1.50        1     5.97
  P3               CIRCULAR             1.50     1.77     0.38     1.50        1     7.06
  P4               CIRCULAR             1.67     2.19     0.42     1.67        1     6.01
  P5               CIRCULAR             1.83     2.63     0.46     1.83        1     7.78
  P6               CIRCULAR             2.00     3.14     0.50     2.00        1     7.98
  P7               CIRCULAR             2.00     3.14     0.50     2.00        1    13.11
  P8               CIRCULAR             3.17     7.89     0.79     3.17        1    31.44
  
  
  
  ****************
  Transect Summary
  ****************

  Transect Full_Street
  Area:  
              0.0003     0.0013     0.0029     0.0052     0.0081 
              0.0117     0.0159     0.0208     0.0263     0.0325 
              0.0393     0.0468     0.0549     0.0637     0.0731 
              0.0832     0.0939     0.1053     0.1173     0.1302 
              0.1443     0.1598     0.1765     0.1946     0.2139 
              0.2346     0.2565     0.2798     0.3043     0.3302 
              0.3573     0.3853     0.4139     0.4432     0.4731 
              0.5037     0.5349     0.5668     0.5993     0.6325 
              0.6663     0.7008     0.7359     0.7717     0.8081 
              0.8452     0.8829     0.9213     0.9603     1.0000 
  Hrad:  
              0.0195     0.0389     0.0584     0.0779     0.0974 
              0.1168     0.1363     0.1558     0.1752     0.1947 
              0.2142     0.2337     0.2531     0.2726     0.2921 
              0.3115     0.3310     0.3505     0.3700     0.3766 
              0.3821     0.3899     0.3994     0.4105     0.4227 
              0.4358     0.4498     0.4644     0.4796     0.4953 
              0.5141     0.5418     0.5692     0.5963     0.6231 
              0.6497     0.6760     0.7020     0.7278     0.7534 
              0.7788     0.8040     0.8291     0.8539     0.8786 
              0.9032     0.9276     0.9519     0.9760     1.0000 
  Width: 
              0.0163     0.0325     0.0487     0.0650     0.0813 
              0.0975     0.1138     0.1300     0.1463     0.1625 
              0.1788     0.1950     0.2113     0.2275     0.2437 
              0.2600     0.2762     0.2925     0.3087     0.3375 
              0.3700     0.4025     0.4350     0.4675     0.5000 
              0.5325     0.5650     0.5975     0.6300     0.6625 
              0.6913     0.7075     0.7238     0.7400     0.7563 
              0.7725     0.7888     0.8050     0.8213     0.8375 
              0.8538     0.8700     0.8863     0.9025     0.9188 
              0.9350     0.9513     0.9675     0.9838     1.0000 

  Transect Half_Street
  Area:  
              0.0003     0.0013     0.0029     0.0052     0.0081 
              0.0117     0.0159     0.0208     0.0263     0.0325 
              0.0393     0.0468     0.0549     0.0637     0.0731 
              0.0832     0.0939     0.1053     0.1173     0.1302 
              0.1443     0.1598     0.1765     0.1946     0.2139 
              0.2346     0.2565     0.2798     0.3043     0.3302 
              0.3573     0.3853     0.4139     0.4432     0.4731 
              0.5037     0.5349     0.5668     0.5993     0.6325 
              0.6663     0.7008     0.7359     0.7717     0.8081 
              0.8452     0.8829     0.9213     0.9603     1.0000 
  Hrad:  
              0.0197     0.0394     0.0591     0.0788     0.0986 
              0.1183     0.1380     0.1577     0.1774     0.1971 
              0.2168     0.2365     0.2563     0.2760     0.2957 
              0.3154     0.3351     0.3548     0.3745     0.3813 
              0.3868     0.3947     0.4044     0.4155     0.4279 
              0.4412     0.4553     0.4701     0.4855     0.5014 
              0.5203     0.5479     0.5751     0.6020     0.6286 
              0.6549     0.6809     0.7066     0.7321     0.7574 
              0.7824     0.8073     0.8319     0.8564     0.8807 
              0.9049     0.9289     0.9527     0.9764     1.0000 
  Width: 
              0.0163     0.0325     0.0487     0.0650     0.0813 
              0.0975     0.1138     0.1300     0.1463     0.1625 
              0.1788     0.1950     0.2113     0.2275     0.2437 
              0.2600     0.2762     0.2925     0.3087     0.3375 
              0.3700     0.4025     0.4350     0.4675     0.5000 
              0.5325     0.5650     0.5975     0.6300     0.6625 
              0.6913     0.7075     0.7238     0.7400     0.7563 
              0.7725     0.7888     0.8050     0.8213     0.8375 
              0.8538     0.8700     0.8863     0.9025     0.9188 
              0.9350     0.9513     0.9675     0.9838     1.0000 
  
  
  *********************************************************
  NOTE: The summary statistics displayed in this report are
  based on results found at every computational time step,  
  not just on results from each reporting time step.
  *********************************************************
  
  ****************
  Analysis Options
  ****************
  Flow Units ............... CMS
  Process Models:
    Rainfall/Runoff ........ YES
    RDII ................... NO
    Snowmelt ............... NO
    Groundwater ............ NO
    Flow Routing ........... YES
    Ponding Allowed ........ NO
    Water Quality .......... NO
  Infiltration Method ...... HORTON
  Flow Routing Method ...... DYNWAVE
  Surcharge Method ......... EXTRAN
  Starting Date ............ 01/01/2007 00:00:00
  Ending Date .............. 01/01/2007 12:00:00
  Antecedent Dry Days ...... 0.0
  Report Time Step ......... 00:01:00
  Wet Time Step ............ 00:01:00
  Dry Time Step ............ 01:00:00
  Routing Time Step ........ 15.00 sec
  Variable Time Step ....... YES
  Maximum Trials ........... 8
  Number of Threads ........ 1
  Head Tolerance ........... 0.001524 m
  
  
  **************************        Volume         Depth
  Runoff Quantity Continuity     hectare-m            mm
  **************************     ---------       -------
  Total Precipitation ......         0.106         3.669
  Evaporation Loss .........         0.000         0.000
  Infiltration Loss ........         0.020         0.703
  Surface Runoff ...........         0.085         2.941
  Final Storage ............         0.001         0.026
  Continuity Error (%) .....        -0.029
  
  
  **************************        Volume        Volume
  Flow Routing Continuity        hectare-m      10^6 ltr
  **************************     ---------     ---------
  Dry Weather Inflow .......         0.000         0.000
  Wet Weather Inflow .......         0.085         0.850
  Groundwater Inflow .......         0.000         0.000
  RDII Inflow ..............         0.000         0.000
  External Inflow ..........         0.000         0.000
  External Outflow .........         0.085         0.846
  Flooding Loss ............         0.000         0.000
  Evaporation Loss .........         0.000         0.000
  Exfiltration Loss ........         0.000         0.000
  Initial Stored Volume ....         0.000         0.000
  Final Stored Volume ......         0.000         0.001
  Continuity Error (%) .....         0.411
  
  
  *************************
  Highest Continuity Errors
  *************************
  Node J4 (1.70%)
  Node Aux2 (1.56%)
  Node J2 (1.21%)
  
  
  ***************************
  Time-Step Critical Elements
  ***************************
  None
  
  
  ********************************
  Highest Flow Instability Indexes
  ********************************
  All links are stable.
  
  
  *************************
  Routing Time Step Summary
  *************************
  Minimum Time Step           :     7.02 sec
  Average Time Step           :    14.99 sec
  Maximum Time Step           :    15.00 sec
  Percent in Steady State     :     0.00
  Average Iterations per Step :     2.00
  Percent Not Converging      :     0.00
  
  
  ***************************
  Subcatchment Runoff Summary
  ***************************
  
  ------------------------------------------------------------------------------------------------------------------------------
                            Total      Total      Total      Total     Imperv       Perv      Total       Total     Peak  Runoff
                           Precip      Runon       Evap      Infil     Runoff     Runoff     Runoff      Runoff   Runoff   Coeff
  Subcatchment                 mm         mm         mm         mm         mm         mm         mm    10^6 ltr      CMS
  ------------------------------------------------------------------------------------------------------------------------------
  S1                         3.67       0.00       0.00       0.71       2.06       0.88       2.94        0.13     0.07   0.801
  S2                         3.67       0.00       0.00       0.59       2.28       0.76       3.05        0.14     0.08   0.831
  S3                         3.67       0.00       0.00       0.99       1.43       1.23       2.66        0.10     0.05   0.726
  S4                         3.67       0.00       0.00       0.81       1.81       1.02       2.83        0.19     0.10   0.772
  S5                         3.67       0.00       0.00       0.18       3.18       0.27       3.45        0.17     0.11   0.940
  S6                         3.67       0.00       0.00       0.07       3.44       0.11       3.56        0.07     0.05   0.969
  S7                         3.67       0.00       0.00       1.75       0.00       1.92       1.92        0.04     0.01   0.522
  
  
  ******************
  Node Depth Summary
  ******************
  
  ---------------------------------------------------------------------------------
                                 Average  Maximum  Maximum  Time of Max    Reported
                                   Depth    Depth      HGL   Occurrence   Max Depth
  Node                 Type       Meters   Meters   Meters  days hr:min      Meters
  ---------------------------------------------------------------------------------
  J1                   JUNCTION     0.01     0.08  4969.08     0  00:44        0.08
  J2a                  JUNCTION     0.01     0.09  4966.79     0  00:41        0.09
  J2                   JUNCTION     0.01     0.08  4965.08     0  00:49        0.08
  J3                   JUNCTION     0.00     0.00  4973.00     0  00:00        0.00
  J4                   JUNCTION     0.02     0.12  4965.12     0  00:54        0.12
  J5                   JUNCTION     0.01     0.09  4965.89     0  00:47        0.09
  J6                   JUNCTION     0.00     0.00  4969.00     0  00:00        0.00
  J7                   JUNCTION     0.02     0.12  4963.62     0  00:47        0.12
  J8                   JUNCTION     0.00     0.00  4966.50     0  00:00        0.00
  J9                   JUNCTION     0.00     0.00  4964.80     0  00:00        0.00
  J10                  JUNCTION     0.03     0.17  4957.97     0  00:39        0.17
  J11                  JUNCTION     0.02     0.14  4957.14     0  00:43        0.14
  Aux1                 JUNCTION     0.01     0.06  4975.06     0  00:42        0.06
  Aux2                 JUNCTION     0.02     0.07  4971.87     0  00:42        0.07
  Aux3                 JUNCTION     0.01     0.10  4968.60     0  00:37        0.10
  O1                   OUTFALL      0.01     0.14  4956.14     0  00:43        0.14
  
  
  *******************
  Node Inflow Summary
  *******************
  
  -------------------------------------------------------------------------------------------------
                                  Maximum  Maximum                  Lateral       Total        Flow
                                  Lateral    Total  Time of Max      Inflow      Inflow     Balance
                                   Inflow   Inflow   Occurrence      Volume      Volume       Error
  Node                 Type           CMS      CMS  days hr:min    10^6 ltr    10^6 ltr     Percent
  -------------------------------------------------------------------------------------------------
  J1                   JUNCTION     0.000    0.037     0  00:43           0       0.132      -0.159
  J2a                  JUNCTION     0.000    0.042     0  00:42           0       0.142      -0.243
  J2                   JUNCTION     0.000    0.042     0  00:43           0       0.143       1.225
  J3                   JUNCTION     0.000    0.000     0  00:00           0           0       0.000 ltr
  J4                   JUNCTION     0.000    0.067     0  00:42           0       0.234       1.729
  J5                   JUNCTION     0.000    0.036     0  00:44           0       0.132       0.084
  J6                   JUNCTION     0.000    0.000     0  00:00           0           0       0.000 ltr
  J7                   JUNCTION     0.105    0.113     0  00:35       0.192       0.422      -0.245
  J8                   JUNCTION     0.000    0.000     0  00:00           0           0       0.000 ltr
  J9                   JUNCTION     0.000    0.000     0  00:00           0           0       0.000 ltr
  J10                  JUNCTION     0.114    0.184     0  00:35        0.21       0.633      -0.080
  J11                  JUNCTION     0.046    0.211     0  00:40      0.0704       0.845      -0.129
  Aux1                 JUNCTION     0.074    0.074     0  00:35       0.134       0.134       1.565
  Aux2                 JUNCTION     0.084    0.084     0  00:35       0.144       0.144       1.580
  Aux3                 JUNCTION     0.049    0.049     0  00:35      0.0996      0.0996      -2.547
  O1                   OUTFALL      0.000    0.208     0  00:43           0       0.846       0.000
  
  
  **********************
  Node Surcharge Summary
  **********************
  
  No nodes were surcharged.
  
  
  *********************
  Node Flooding Summary
  *********************
  
  No nodes were flooded.
  
  
  ***********************
  Outfall Loading Summary
  ***********************
  
  -----------------------------------------------------------
                         Flow       Avg       Max       Total
                         Freq      Flow      Flow      Volume
  Outfall Node           Pcnt       CMS       CMS    10^6 ltr
  -----------------------------------------------------------
  O1                    99.86     0.020     0.208       0.846
  -----------------------------------------------------------
  System                99.86     0.020     0.208       0.846
  
  
  ********************
  Link Flow Summary
  ********************
  
  -----------------------------------------------------------------------------
                                 Maximum  Time of Max   Maximum    Max/    Max/
                                  |Flow|   Occurrence   |Veloc|    Full    Full
  Link                 Type          CMS  days hr:min     m/sec    Flow   Depth
  -----------------------------------------------------------------------------
  C2a                  CHANNEL     0.000     0  00:00      0.00    0.00    0.00
  C2                   CHANNEL     0.000     0  00:00      0.00    0.00    0.00
  C3                   CONDUIT     0.000     0  00:00      0.00    0.00    0.00
  C4                   CONDUIT     0.000     0  00:00      0.00    0.00    0.00
  C5                   CONDUIT     0.000     0  00:00      0.00    0.00    0.00
  C6                   CONDUIT     0.000     0  00:00      0.00    0.00    0.00
  C7                   CONDUIT     0.000     0  00:00      0.00    0.00    0.00
  C8                   CONDUIT     0.000     0  00:00      0.00    0.00    0.00
  C9                   CONDUIT     0.000     0  00:00      0.00    0.00    0.00
  C10                  CONDUIT     0.000     0  00:00      0.00    0.00    0.00
  C11                  CONDUIT     0.208     0  00:43      1.36    0.00    0.03
  C_Aux1               CHANNEL     0.037     0  00:43      0.44    0.00    0.04
  C_Aux2               CHANNEL     0.042     0  00:42      0.43    0.00    0.05
  C_Aux1to2            CHANNEL     0.000     0  00:00      0.00    0.00    0.03
  C_Aux3               CONDUIT     0.000     0  00:00      0.00    0.00    0.00
  P1                   CONDUIT     0.036     0  00:44      1.06    0.01    0.06
  P2                   CONDUIT     0.042     0  00:43      1.18    0.01    0.06
  P3                   CONDUIT     0.039     0  00:49      0.69    0.01    0.07
  P4                   CONDUIT     0.036     0  00:39      0.92    0.01    0.06
  P5                   CONDUIT     0.036     0  00:47      0.68    0.00    0.06
  P6                   CONDUIT     0.052     0  00:53      0.72    0.01    0.06
  P7                   CONDUIT     0.086     0  00:48      0.98    0.01    0.07
  P8                   CONDUIT     0.162     0  00:40      1.15    0.01    0.05
  
  
  ***************************
  Flow Classification Summary
  ***************************
  
  -------------------------------------------------------------------------------------
                      Adjusted    ---------- Fraction of Time in Flow Class ---------- 
                       /Actual         Up    Down  Sub   Sup   Up    Down  Norm  Inlet 
  Conduit               Length    Dry  Dry   Dry   Crit  Crit  Crit  Crit  Ltd   Ctrl  
  -------------------------------------------------------------------------------------
  C2a                     1.00   1.00  0.00  0.00  0.00  0.00  0.00  0.00  0.00  0.00
  C2                      1.00   1.00  0.00  0.00  0.00  0.00  0.00  0.00  0.00  0.00
  C3                      1.00   1.00  0.00  0.00  0.00  0.00  0.00  0.00  0.00  0.00
  C4                      1.00   1.00  0.00  0.00  0.00  0.00  0.00  0.00  0.00  0.00
  C5                      1.00   1.00  0.00  0.00  0.00  0.00  0.00  0.00  0.00  0.00
  C6                      1.00   1.00  0.00  0.00  0.00  0.00  0.00  0.00  0.00  0.00
  C7                      1.00   1.00  0.00  0.00  0.00  0.00  0.00  0.00  0.00  0.00
  C8                      1.00   1.00  0.00  0.00  0.00  0.00  0.00  0.00  0.00  0.00
  C9                      1.00   1.00  0.00  0.00  0.00  0.00  0.00  0.00  0.00  0.00
  C10                     1.00   1.00  0.00  0.00  0.00  0.00  0.00  0.00  0.00  0.00
  C11                     1.00   0.00  0.00  0.00  0.57  0.43  0.00  0.00  0.01  0.00
  C_Aux1                  1.00   0.00  0.00  0.00  0.00  0.00  0.00  1.00  0.00  0.00
  C_Aux2                  1.00   0.00  0.00  0.00  0.00  0.00  0.00  1.00  0.00  0.00
  C_Aux1to2               1.00   0.00  1.00  0.00  0.00  0.00  0.00  0.00  0.00  0.00
  C_Aux3                  1.00   1.00  0.00  0.00  0.00  0.00  0.00  0.00  0.00  0.00
  P1                      1.00   0.01  0.00  0.00  0.75  0.24  0.00  0.00  0.95  0.00
  P2                      1.00   0.01  0.00  0.00  0.78  0.20  0.00  0.00  0.65  0.00
  P3                      1.00   0.00  0.02  0.00  0.98  0.00  0.00  0.00  0.40  0.00
  P4                      1.00   0.00  0.19  0.00  0.77  0.04  0.00  0.00  0.94  0.00
  P5                      1.00   0.00  0.01  0.00  0.98  0.00  0.00  0.00  0.98  0.00
  P6                      1.00   0.00  0.00  0.00  1.00  0.00  0.00  0.00  0.15  0.00
  P7                      1.00   0.00  0.00  0.00  0.94  0.06  0.00  0.00  0.43  0.00
  P8                      1.00   0.00  0.00  0.00  0.91  0.09  0.00  0.00  0.41  0.00
  
  
  *************************
  Conduit Surcharge Summary
  *************************
  
  No conduits were surcharged.
  

  Analysis begun on:  Wed Sep 23 17:43:51 2020
  Analysis ended on:  Wed Sep 23 17:43:51 2020
  Total elapsed time: < 1 sec