
  EPA STORM WATER MANAGEMENT MODEL - VERSION 5.1 (Build 5.1.013)
  --------------------------------------------------------------

  Modell 1 mit MUE 
  
  
  *********************************************************
  NOTE: The summary statistics displayed in this report are
  based on results found at every computational time step,  
  not just on results from each reporting time step.
  *********************************************************
  
  ****************
  Analysis Options
  ****************
  Flow Units ............... LPS
  Process Models:
    Rainfall/Runoff ........ YES
    RDII ................... NO
    Snowmelt ............... NO
    Groundwater ............ NO
    Flow Routing ........... YES
    Ponding Allowed ........ YES
    Water Quality .......... NO
  Infiltration Method ...... HORTON
  Flow Routing Method ...... DYNWAVE
  Surcharge Method ......... EXTRAN
  Starting Date ............ 01/01/1996 00:00:00
  Ending Date .............. 06/04/1996 21:50:00
  Antecedent Dry Days ...... 0.0
  Report Time Step ......... 00:00:10
  Wet Time Step ............ 00:00:10
  Dry Time Step ............ 00:05:00
  Routing Time Step ........ 5.00 sec
  Variable Time Step ....... YES
  Maximum Trials ........... 8
  Number of Threads ........ 1
  Head Tolerance ........... 0.001500 m
  
  
  **************************        Volume         Depth
  Runoff Quantity Continuity     hectare-m            mm
  **************************     ---------       -------
  Total Precipitation ......        20.093       984.500
  Evaporation Loss .........         0.000         0.000
  Infiltration Loss ........         0.000         0.000
  Surface Runoff ...........        20.093       984.509
  Final Storage ............         0.000         0.000
  Continuity Error (%) .....        -0.001
  
  
  **************************        Volume        Volume
  Flow Routing Continuity        hectare-m      10^6 ltr
  **************************     ---------     ---------
  Dry Weather Inflow .......        67.838       678.382
  Wet Weather Inflow .......        20.094       200.940
  Groundwater Inflow .......         0.000         0.000
  RDII Inflow ..............         0.000         0.000
  External Inflow ..........         0.000         0.000
  External Outflow .........        87.906       879.065
  Flooding Loss ............         0.053         0.535
  Evaporation Loss .........         0.000         0.000
  Exfiltration Loss ........         0.000         0.000
  Initial Stored Volume ....         0.000         0.000
  Final Stored Volume ......         0.013         0.128
  Continuity Error (%) .....        -0.046
  
  
  ***************************
  Time-Step Critical Elements
  ***************************
  None
  
  
  ********************************
  Highest Flow Instability Indexes
  ********************************
  All links are stable.
  
  
  *************************
  Routing Time Step Summary
  *************************
  Minimum Time Step           :     1.11 sec
  Average Time Step           :     5.00 sec
  Maximum Time Step           :     5.00 sec
  Percent in Steady State     :    -0.00
  Average Iterations per Step :     2.00
  Percent Not Converging      :     0.02
  
  
  ***************************
  Subcatchment Runoff Summary
  ***************************
  
  ------------------------------------------------------------------------------------------------------------------------------
                            Total      Total      Total      Total     Imperv       Perv      Total       Total     Peak  Runoff
                           Precip      Runon       Evap      Infil     Runoff     Runoff     Runoff      Runoff   Runoff   Coeff
  Subcatchment                 mm         mm         mm         mm         mm         mm         mm    10^6 ltr      LPS
  ------------------------------------------------------------------------------------------------------------------------------
  SC01                     984.50       0.00       0.00       0.00     984.51       0.00     984.51        9.85   329.38   1.000
  SC02                     984.50       0.00       0.00       0.00     984.51       0.00     984.51        9.85   329.38   1.000
  SC03                     984.50       0.00       0.00       0.00     984.51       0.00     984.51       19.69   588.18   1.000
  SC04                     984.50       0.00       0.00       0.00     984.69       0.00     984.69        0.09     3.66   1.000
  SC06                     984.50       0.00       0.00       0.00     984.51       0.00     984.51       19.69   588.18   1.000
  SC07                     984.50       0.00       0.00       0.00     984.51       0.00     984.51       23.63   689.38   1.000
  SC08                     984.50       0.00       0.00       0.00     984.51       0.00     984.51       31.50   919.35   1.000
  SC09                     984.50       0.00       0.00       0.00     984.51       0.00     984.51       63.01  1882.18   1.000
  SC10                     984.50       0.00       0.00       0.00     984.51       0.00     984.51       23.63   689.38   1.000
  
  
  ******************
  Node Depth Summary
  ******************
  
  ---------------------------------------------------------------------------------
                                 Average  Maximum  Maximum  Time of Max    Reported
                                   Depth    Depth      HGL   Occurrence   Max Depth
  Node                 Type       Meters   Meters   Meters  days hr:min      Meters
  ---------------------------------------------------------------------------------
  J01                  JUNCTION     0.05     0.79   336.84    89  10:20        0.79
  J02                  JUNCTION     0.07     3.70   338.50    50  04:29        2.93
  J04                  JUNCTION     0.11     4.71   336.94    50  04:26        4.71
  J05                  JUNCTION     0.03     0.04   335.04    21  23:10        0.04
  J06                  JUNCTION     0.13     4.95   335.50    50  04:23        4.95
  J07                  JUNCTION     0.13     4.95   333.70    50  04:26        4.95
  J08                  JUNCTION     0.19     4.95   331.90    50  04:25        4.95
  J09                  JUNCTION     0.07     5.25   335.00    50  04:28        5.25
  J10                  JUNCTION     0.06     0.60   325.75    50  04:33        0.60
  JA                   JUNCTION     0.03     0.40   337.70    21  23:10        0.40
  OF_ARA               OUTFALL      0.10     0.12   320.62     0  00:15        0.12
  OF_MUE_N             OUTFALL      0.00     0.00   331.50     0  00:00        0.00
  OF_MUEB_BUE          OUTFALL      0.00     0.00   323.50     0  00:00        0.00
  OF_MUEB_KUE          OUTFALL      0.00     0.00   323.00     0  00:00        0.00
  J03                  STORAGE      0.08     2.16   334.46    50  04:43        2.16
  J11                  STORAGE      0.32     4.15   325.65    50  04:33        4.15
  SU_MUEB              STORAGE      0.14     2.00   324.50    50  04:33        2.00
  
  
  *******************
  Node Inflow Summary
  *******************
  
  -------------------------------------------------------------------------------------------------
                                  Maximum  Maximum                  Lateral       Total        Flow
                                  Lateral    Total  Time of Max      Inflow      Inflow     Balance
                                   Inflow   Inflow   Occurrence      Volume      Volume       Error
  Node                 Type           LPS      LPS  days hr:min    10^6 ltr    10^6 ltr     Percent
  -------------------------------------------------------------------------------------------------
  J01                  JUNCTION    331.76   641.92    21  23:10        41.9        83.8      -0.007
  J02                  JUNCTION    592.93  1105.95    89  10:16        83.7         168      -0.126
  J04                  JUNCTION    592.93   651.34    89  10:17        83.7         276      -0.005
  J05                  JUNCTION      5.56     5.56    21  23:09        25.7        25.7       0.011
  J06                  JUNCTION    695.08  1295.50    89  10:19         100         376       0.008
  J07                  JUNCTION    926.95  1924.79    89  10:18         134         510       0.003
  J08                  JUNCTION    695.08  4068.61    89  10:20         100         877      -0.197
  J09                  JUNCTION   1897.38  1897.38    89  10:20         268         268       0.524
  J10                  JUNCTION      0.00  3293.30    50  04:33           0         878       0.014
  JA                   JUNCTION    331.76   331.76    21  23:10        41.9        41.9      -0.027
  OF_ARA               OUTFALL       0.00    90.00     0  00:15           0         728       0.000
  OF_MUE_N             OUTFALL       0.00   543.05    50  04:43           0       0.991       0.000
  OF_MUEB_BUE          OUTFALL       0.00     0.89    50  04:33           0    0.000152       0.000
  OF_MUEB_KUE          OUTFALL       0.00  3202.36    50  04:33           0         150       0.000
  J03                  STORAGE       0.00  1099.37    89  10:19           0         193       0.055
  J11                  STORAGE       0.00   870.69    21  23:12           0         728       0.001
  SU_MUEB              STORAGE       0.00  3203.27    50  04:33           0         158      -0.001
  
  
  **********************
  Node Surcharge Summary
  **********************
  
  Surcharging occurs when water rises above the top of the highest conduit.
  ---------------------------------------------------------------------
                                               Max. Height   Min. Depth
                                   Hours       Above Crown    Below Rim
  Node                 Type      Surcharged         Meters       Meters
  ---------------------------------------------------------------------
  J02                  JUNCTION        0.30          2.800        0.000
  J04                  JUNCTION        0.41          3.810        0.000
  J06                  JUNCTION        0.80          4.050        0.000
  J07                  JUNCTION        0.53          3.750        0.000
  J08                  JUNCTION        0.79          3.300        0.000
  J09                  JUNCTION        0.19          3.900        0.000
  
  
  *********************
  Node Flooding Summary
  *********************
  
  Flooding refers to all water that overflows a node, whether it ponds or not.
  --------------------------------------------------------------------------
                                                             Total   Maximum
                                 Maximum   Time of Max       Flood    Ponded
                        Hours       Rate    Occurrence      Volume     Depth
  Node                 Flooded       LPS   days hr:min    10^6 ltr    Meters
  --------------------------------------------------------------------------
  J02                     0.01    120.67     50  04:29       0.001     0.000
  J04                     0.03    345.44     50  04:26       0.013     0.000
  J06                     0.21    556.25     89  10:20       0.236     0.000
  J07                     0.09   1088.94     89  10:18       0.052     0.000
  J08                     0.13   1445.79     89  10:18       0.208     0.000
  J09                     0.01   1035.64     89  10:19       0.025     0.000
  
  
  **********************
  Storage Volume Summary
  **********************
  
  --------------------------------------------------------------------------------------------------
                         Average     Avg  Evap Exfil       Maximum     Max    Time of Max    Maximum
                          Volume    Pcnt  Pcnt  Pcnt        Volume    Pcnt     Occurrence    Outflow
  Storage Unit           1000 m3    Full  Loss  Loss       1000 m3    Full    days hr:min        LPS
  --------------------------------------------------------------------------------------------------
  J03                      0.037       2     0     0         0.974      46      50  04:43     629.05
  J11                      0.001       4     0     0         0.008      49      50  04:33      90.00
  SU_MUEB                  0.023       2     0     0         0.334      27      50  04:33    3203.24
  
  
  ***********************
  Outfall Loading Summary
  ***********************
  
  -----------------------------------------------------------
                         Flow       Avg       Max       Total
                         Freq      Flow      Flow      Volume
  Outfall Node           Pcnt       LPS       LPS    10^6 ltr
  -----------------------------------------------------------
  OF_ARA               100.00     54.03     90.00     727.832
  OF_MUE_N               0.06    132.70    543.05       0.991
  OF_MUEB_BUE            0.00      0.66      0.89       0.000
  OF_MUEB_KUE            5.19    215.42   3202.36     150.237
  -----------------------------------------------------------
  System                26.31    402.81   3202.36     879.061
  
  
  ********************
  Link Flow Summary
  ********************
  
  -----------------------------------------------------------------------------
                                 Maximum  Time of Max   Maximum    Max/    Max/
                                  |Flow|   Occurrence   |Veloc|    Full    Full
  Link                 Type          LPS  days hr:min     m/sec    Flow   Depth
  -----------------------------------------------------------------------------
  C01                  CONDUIT    314.30    21  23:10      1.57    0.35    0.66
  C02                  CONDUIT    595.50    89  10:23      1.88    0.65    0.94
  C03                  CONDUIT   1094.49    89  10:19      3.36    1.20    1.00
  C04                  CONDUIT      5.34    21  23:10      0.99    0.11    0.61
  C05_Drossel_N        CONDUIT     86.00     0  00:24      0.82    0.07    1.00
  C06                  CONDUIT    607.36    89  10:19      1.67    0.81    1.00
  C07                  CONDUIT   1027.63    89  10:18      2.49    1.46    1.00
  C08                  CONDUIT   1634.92    50  04:28      2.22    1.08    1.00
  C09                  CONDUIT   1813.88    50  04:30      2.85    0.68    1.00
  C10                  CONDUIT   3293.30    50  04:33      4.82    1.58    0.72
  C12                  CONDUIT     90.00     0  00:15      1.80    0.04    0.57
  O_Drossel_ARA        ORIFICE    870.69    21  23:12                          
  W_MUE_N              WEIR       543.05    50  04:43                      0.16
  W_MUEB               WEIR      3203.27    50  04:33                      0.36
  W_MUEB_BUE           WEIR         0.89    50  04:33                      0.00
  W_MUEB_KUE           WEIR      3202.36    50  04:33                      0.25
  OL_MUEB              DUMMY       11.89    75  08:07
  
  
  ***************************
  Flow Classification Summary
  ***************************
  
  -------------------------------------------------------------------------------------
                      Adjusted    ---------- Fraction of Time in Flow Class ---------- 
                       /Actual         Up    Down  Sub   Sup   Up    Down  Norm  Inlet 
  Conduit               Length    Dry  Dry   Dry   Crit  Crit  Crit  Crit  Ltd   Ctrl  
  -------------------------------------------------------------------------------------
  C01                     1.00   0.00  0.00  0.00  1.00  0.00  0.00  0.00  1.00  0.00
  C02                     1.00   0.00  0.00  0.00  1.00  0.00  0.00  0.00  1.00  0.00
  C03                     1.00   0.00  0.00  0.00  0.97  0.03  0.00  0.00  0.04  0.00
  C04                     1.00   0.00  0.00  0.00  0.03  0.00  0.00  0.96  0.04  0.00
  C05_Drossel_N           1.00   0.00  0.00  0.00  1.00  0.00  0.00  0.00  0.96  0.00
  C06                     1.00   0.00  0.00  0.00  1.00  0.00  0.00  0.00  1.00  0.00
  C07                     1.00   0.00  0.00  0.00  1.00  0.00  0.00  0.00  0.98  0.00
  C08                     1.00   0.00  0.00  0.00  1.00  0.00  0.00  0.00  1.00  0.00
  C09                     1.00   0.00  0.00  0.00  0.00  0.01  0.00  0.99  0.01  0.00
  C10                     1.00   0.00  0.00  0.00  0.00  1.00  0.00  0.00  0.00  0.00
  C12                     1.00   0.00  0.00  0.00  0.07  0.93  0.00  0.00  0.08  0.00
  
  
  *************************
  Conduit Surcharge Summary
  *************************
  
  ----------------------------------------------------------------------------
                                                           Hours        Hours 
                         --------- Hours Full --------   Above Full   Capacity
  Conduit                Both Ends  Upstream  Dnstream   Normal Flow   Limited
  ----------------------------------------------------------------------------
  C02                         0.01      0.01      0.30      0.01         0.01
  C03                         0.22      0.30     44.83      0.24         0.12
  C04                         0.01      0.01     97.11      0.01         0.01
  C05_Drossel_N               0.44     48.28      0.46      0.01         0.17
  C06                         0.41      0.41      0.80      0.01         0.01
  C07                         0.76      0.80      0.89      1.33         0.53
  C08                         0.53      0.53      2.79      0.09         0.05
  C09                         0.18      0.18      0.79      0.01         0.01
  C10                         0.01      1.83      0.01      2.50         0.01
  C12                         0.01    248.88      0.01      0.01         0.01
  

  Analysis begun on:  Tue Jun  4 08:59:23 2019
  Analysis ended on:  Tue Jun  4 08:59:58 2019
  Total elapsed time: 00:00:35